   868.62524       309.51566       12.79039
   12.50000       309.51566       12.79039       -8.33137       0.17351
   37.50000       309.51510       12.79064       -9.44960       0.45863
   62.50000       309.64996       12.68150       -11.09091       0.45863
   87.50001       309.71593       12.65106       -12.39887       0.45863
   112.50001       309.68499       12.64852       -13.18354       0.45863
   137.50000       309.66652       12.60970       -13.62660       0.45863
   162.50002       309.65034       12.61905       -13.88453       0.45863
   187.50002       309.63944       12.62854       -14.06797       0.37198
   212.50000       309.64960       12.74778       -14.22409       0.16410
   237.50002       309.65628       12.66035       -14.37398       -0.04216
   262.50003       309.64995       12.62122       -14.52087       -0.16544
   287.50003       309.64852       12.64736       -14.68438       -0.16544
   312.50000       309.65163       12.63013       -14.82036       -0.16544
   337.50000       309.66461       12.67817       -14.96684       -0.16544
   362.50000       309.67851       12.73580       -15.09986       -0.16544
   387.50003       309.66813       12.67409       -15.19848       -0.16226
   412.50003       309.67830       12.65586       -15.27487       -0.10915
   437.50003       309.68098       12.66025       -15.34575       -0.08691
   462.50003       309.68860       12.62581       -15.39942       -0.08691
   487.50000       309.69984       12.65181       -15.43929       -0.08691
   512.50006       310.22038       13.01648       -15.45283       -0.08691
   537.50000       310.22306       12.99482       -15.45283       -0.08691
   562.50000       310.23170       13.12196       -15.45283       -0.08691
   587.50006       310.23694       13.05598       -15.45283       -0.17067
   612.50000       310.23113       13.06368       -15.45283       -0.33746
   637.50006       310.24270       13.06432       -15.45016       -0.52186
   662.50000       310.24556       13.04823       -15.39035       -0.72216
   687.50006       310.26181       13.01578       -15.27401       -0.91372
   712.50006       310.26006       12.95619       -15.12422       -1.06744
   737.50000       310.33685       12.76390       -14.93054       -1.21284
   762.50006       310.35229       12.73301       -14.74993       -1.34554
   787.50000       310.39485       12.61962       -14.59808       -1.47016
   812.50006       310.43671       12.54912       -14.51096       -1.56871
   837.50006       310.47814       12.48641       -14.47337       -1.64347
   862.50000       310.50955       12.42488       -14.43373       -1.71487
   887.50006       310.57092       12.38120       -14.34802       -1.78908
   912.50000       310.63664       12.30702       -14.07034       -1.94979
   937.50006       310.66469       12.25493       -13.66850       -2.15328
   962.50006       310.71871       12.21070       -13.23638       -2.35747
   987.50006       310.73704       12.27289       -12.79269       -2.55743
   1012.50006       310.74030       12.29182       -12.39773       -2.73493
   1037.50000       310.79568       12.24461       -12.06587       -2.88624
   1062.50000       310.77840       12.22579       -11.68232       -3.08089
   1087.50012       310.77004       12.19578       -11.39060       -3.25727
   1112.50012       310.79069       12.25779       -11.14814       -3.42465
   1137.50000       310.88216       12.13819       -10.90655       -3.61574
   1162.50000       310.99360       11.83110       -10.63482       -3.84678
   1187.50000       311.14075       11.54659       -10.36890       -4.06708
   1212.50012       311.26701       11.30306       -10.09035       -4.27889
   1237.50012       311.50408       10.58358       -9.70235       -4.48045
   1262.50000       311.87072       9.88811       -9.25875       -4.48045
   1287.50000       311.94592       9.77664       -8.77018       -4.48045
   1312.50012       312.18259       9.38457       -8.12811       -4.48045
   1337.50012       312.18303       9.41030       -7.46177       -4.48045
   1362.50012       312.21070       9.30730       -6.75684       -4.48045
   1387.50000       312.32896       8.95973       -6.02023       -4.48045
   1412.50000       312.64455       8.33586       -5.38937       -4.48045
   1437.50012       312.95329       7.99328       -4.86767       -4.33118
   1462.50012       313.08505       7.89685       -4.34423       -3.90292
   1487.50012       313.08421       7.89979       -3.92201       -3.50136
   1512.50000       313.11624       7.89215       -3.62375       -3.24863
   1537.50000       313.13427       7.90150       -3.34624       -3.10095
   1562.50012       313.24085       7.53045       -2.93923       -3.01034
   1587.50012       313.48214       7.03970       -2.47617       -2.98364
   1612.50012       313.64123       6.95956       -1.98682       -2.97203
   1637.50000       313.81909       6.69479       -1.44757       -2.97203
   1662.50000       313.97246       6.55070       -0.86969       -2.97203
   1687.50012       314.04759       6.42231       -0.25754       -2.97203
   1712.50012       314.14614       6.15229       0.30462       -2.97203
   1737.50012       314.42168       5.81167       0.86796       -2.97203
   1762.50000       314.59463       5.54957       1.34798       -2.97203
   1787.50012       314.69100       5.46038       1.99654       -3.01060
   1812.50012       314.74558       5.33657       2.51242       -3.08698
   1837.50012       314.86543       5.22738       2.95141       -3.12587
   1862.50012       315.20104       2.37538       3.31461       -3.13728
   1887.50000       315.52028       2.01589       3.54470       -3.13948
   1912.50012       315.54504       2.03358       3.77206       -3.14145
   1937.50012       315.55237       2.05541       3.90920       -3.14145
   1962.50012       315.58667       2.11116       3.98787       -3.14145
   1987.50012       315.61082       2.15713       4.04699       -3.14145
   2012.50000       315.62088       2.18655       4.10397       -3.14145
   2037.50012       315.61887       2.18727       4.15544       -3.14145
   2062.50000       315.67514       2.31704       4.20164       -3.06116
   2087.50000       315.67204       2.30643       4.25865       -2.81945
   2112.50024       315.69285       2.33555       4.34944       -2.53028
   2137.50000       315.72421       2.34650       4.47234       -2.27018
   2162.50024       315.74931       2.36716       4.63154       -2.03223
   2187.50000       315.76354       2.35338       4.88650       -1.75244
   2212.50000       315.78471       2.33127       5.22758       -1.48552
   2237.50024       315.83028       2.30671       5.75286       -1.19090
   2262.50000       315.89090       2.29309       6.22326       -0.98484
   2287.50024       315.99793       2.28697       6.67307       -0.81542
   2312.50000       316.03488       2.25817       7.18024       -0.64081
   2337.50000       316.09277       2.22670       7.62093       -0.49416
   2362.50024       316.13225       2.19810       8.03249       -0.38578
   2387.50000       316.16366       2.19147       8.35231       -0.38578
   2412.50024       316.20527       2.17307       8.60678       -0.38578
   2437.50000       316.33974       2.11553       8.74838       -0.37930
   2462.50000       316.41124       2.10921       8.85537       -0.35507
   2487.50024       316.43369       2.09963       8.95428       -0.31894
   2512.50000       316.43250       2.08380       9.02682       -0.29179
   2537.50024       316.44970       2.10653       9.02682       -0.26903
   2562.50024       316.45324       2.10757       9.02682       -0.25900
   2587.50000       316.42922       2.08808       9.02682       -0.25900
   2612.50024       316.46420       2.07720       9.03858       -0.25900
   2637.50000       316.45001       2.08861       9.08275       -0.21460
   2662.50024       316.45516       2.08795       9.12420       -0.09474
   2687.50024       316.45239       2.08399       9.17609       0.02460
   2712.50000       316.45612       2.07748       9.20132       0.14056
   2737.50024       316.46459       2.07471       9.24007       0.26671
   2762.50000       316.45486       2.07479       9.24082       0.43063
   2787.50024       316.44883       2.07214       9.24782       0.55927
   2812.50024       316.46210       2.08711       9.51180       0.70771
   2837.50000       316.46296       2.07001       9.88296       0.85448
   2862.50024       316.49777       2.09408       10.27986       0.95966
   2887.50000       316.58097       2.05068       10.73801       1.02317
   2912.50024       316.49199       2.05486       11.15961       1.03169
   2937.50024       316.46392       2.03032       11.52398       1.03477
   2962.50000       316.47524       2.03289       11.88736       1.03910
   2987.50024       316.46388       2.07587       12.16715       1.06976
   3012.50000       316.47115       2.06918       12.42882       1.09203
   3041.93579       316.47933       2.08055       12.60523       1.09203
   3080.24219       316.54611       2.05640       12.62907       1.09203
   3127.41943       316.58240       2.06225       12.66479       1.09203
   3183.46777       316.53467       2.06944       12.73388       0.92607
   3248.38745       316.52867       2.05584       13.41037       0.50905
   3322.17749       316.89173       1.62485       13.79325       0.28808
   3404.83911       316.98832       1.70778       13.88549       -0.49764
   3496.37134       316.96523       1.71647       14.12345       -0.87500
   3596.77466       317.04493       1.61463       14.77286       -0.40908
   3706.04858       317.39550       1.24554       15.01096       0.74644
   3824.19360       317.57109       1.25422       14.94742       0.74486
   3951.20996       317.64105       1.32828       14.78349       0.19107
   4087.09668       317.62210       1.34909       14.33651       -0.18972
   4231.85498       317.84372       1.27019       14.39841       -0.51195
   4385.48438       317.88211       1.19199       14.73687       -0.47532
   4547.98389       318.40122       0.90245       15.41405       -0.28560
   4719.35498       318.58731       0.87449       15.92484       -0.87342
   4899.59668       319.39586       0.55950       16.19425       -2.43851
   5088.71045       319.46645       0.50743       16.17558       -3.38899
   5286.69385       319.22710       0.49232       15.98104       0.29840
   5493.54834       319.49051       0.49962       15.75611       0.49569
   5709.27490       320.07360       0.47918       11.68785       -0.41311
   5933.87109       320.38938       0.43538       12.99392       -0.24123
   6167.33936       320.86481       0.36722       13.34194       -1.26359
   6409.67822       322.33899       0.33900       15.77565       0.60751
   6660.88770       323.45142       0.28565       16.60310       1.58262
   6920.96826       325.38573       0.33698       12.76491       7.69494
   7189.91943       327.00200       0.30757       9.16905       12.90415
   7467.74170       328.93516       0.27557       6.56094       14.92897
   7754.43604       329.84572       0.17883       -0.72470       16.41150
   8050.00000       331.13265       0.18099       1.57287       15.39904
   8350.00000       333.61631       0.17637       8.07048       13.91257
   8650.00098       334.30909       0.13501       9.28750       13.50815
   8950.00098       334.76932       0.11048       7.88923       14.83481
   9250.00000       335.23049       0.08473       10.77919       17.62734
   9550.00000       337.19256       0.07336       17.29613       17.70661
   9850.00000       343.65731       0.06284       9.92538       13.41674
   10150.00098       344.41525       0.03955       6.63437       12.89327
   10450.00098       345.07320       0.03506       -0.33978       14.94834
   10750.00098       344.99284       0.02244       -1.37937       14.70760
   11050.00000       345.24809       0.01816       -1.46212       14.62715
   11350.00000       345.63186       0.01289       -1.46212       14.62715
   11650.00098       345.87345       0.00845       -1.46212       14.62715
   11950.00098       346.46631       0.00592       -1.46212       14.62715
   12250.00098       354.02148       0.00745       -1.46212       14.62715
   12550.00000       358.92864       0.00782       -1.46212       14.62715
   12850.00000       368.90271       0.00422       -1.46212       14.62715
   13150.00098       373.00743       0.00366       -1.46212       14.62715
   13450.00098       376.47163       0.00297       -1.46212       14.62715
   13750.00098       382.94503       0.00250       -1.46212       14.62715
   14050.00000       387.93706       0.00221       -1.46212       14.62715
   14350.00000       392.30625       0.00244       -1.46212       14.62715
   14650.00098       397.46427       0.00211       -1.46212       14.62715
   14950.00098       403.70060       0.00239       -1.46212       14.62715
   15250.00098       406.03119       0.00203       -1.46212       14.62715
   15550.00098       406.88350       0.00200       -1.46212       14.62715
   15850.00000       406.97613       0.00190       -1.46212       14.62715
