   871.1       310.0363       13.67674
   0.00000       310.03630       13.67674       -8.00000       0.00000
   16.83430       310.21845       13.52179       -8.44627       0.23367
   28.74740       310.21971       13.52034       -8.97817       0.37749
   37.40400       310.23948       13.53097       -9.44367       0.45863
   44.16620       310.24135       13.52714       -9.86157       0.45863
   50.04890       310.21386       13.49757       -10.24969       0.45863
   55.52940       310.21119       13.49378       -10.61703       0.45863
   60.70920       310.20513       13.51034       -10.96494       0.45863
   65.37550       310.20914       13.54855       -11.29319       0.45863
   70.46370       310.20023       13.55647       -11.59823       0.45863
   75.73340       310.18933       13.52698       -11.87929       0.45863
   80.95910       310.19290       13.50147       -12.13632       0.45863
   86.64300       310.19571       13.48864       -12.37035       0.45863
   93.01580       310.17678       13.47257       -12.58248       0.45863
   99.00800       310.16440       13.46012       -12.77390       0.45863
   104.28070       310.17231       13.46957       -12.94521       0.45863
   109.23040       310.17483       13.49018       -13.09719       0.45863
   114.28660       310.17241       13.50109       -13.23072       0.45863
   119.67150       310.17545       13.50358       -13.34750       0.45863
   125.25670       310.17479       13.49217       -13.44989       0.45863
   131.11890       310.16840       13.48906       -13.54020       0.45863
   137.00760       310.16271       13.50641       -13.62012       0.45863
   142.39170       310.16220       13.51774       -13.69104       0.45863
   147.64230       310.17589       13.56089       -13.75388       0.45863
   153.11320       310.18236       13.63072       -13.80971       0.45863
   159.22460       310.17875       13.65767       -13.85992       0.45863
   165.33870       310.16878       13.61555       -13.90586       0.45863
   170.38550       310.17014       13.55475       -13.94818       0.45863
   174.80180       310.18117       13.53546       -13.98727       0.45863
   179.69780       310.18570       13.54772       -14.02341       0.42671
   185.49360       310.18188       13.54704       -14.05720       0.38612
   191.55090       310.17901       13.53021       -14.08972       0.34343
   197.40870       310.17573       13.51617       -14.12203       0.29944
   202.53730       310.17130       13.50346       -14.15500       0.25518
   207.26530       310.17217       13.48463       -14.18833       0.21130
   212.14250       310.17450       13.49453       -14.22182       0.16716
   217.44000       310.17872       13.53036       -14.25548       0.12189
   223.28580       310.18296       13.56602       -14.28890       0.07549
   229.04460       310.18037       13.56352       -14.32127       0.02929
   234.30440       310.17515       13.53735       -14.35359       -0.01546
   239.42920       310.17335       13.52249       -14.38628       -0.05828
   244.75700       310.17250       13.52369       -14.41926       -0.09916
   250.32460       310.17276       13.52393       -14.45234       -0.13853
   256.10220       310.16961       13.50757       -14.48502       -0.16544
   261.89280       310.17469       13.49941       -14.51734       -0.16544
   267.41190       310.18726       13.52993       -14.54944       -0.16544
   272.86930       310.19113       13.55775       -14.58225       -0.16544
   278.06290       310.18529       13.54193       -14.61630       -0.16544
   282.81000       310.18673       13.52975       -14.65098       -0.16544
   287.55730       310.19045       13.56028       -14.68479       -0.16544
   292.85030       310.19749       13.60229       -14.71675       -0.16544
   298.66700       310.20347       13.60647       -14.74767       -0.16544
   304.85180       310.20569       13.60063       -14.77888       -0.16544
   310.88840       310.20683       13.61983       -14.81110       -0.16544
   316.53070       310.20216       13.63253       -14.84353       -0.16544
   321.47580       310.18866       13.61895       -14.87487       -0.16544
   326.09720       310.18602       13.58561       -14.90468       -0.16544
   330.96340       310.19375       13.56089       -14.93314       -0.16544
   336.34800       310.19515       13.56581       -14.96081       -0.16544
   341.54430       310.19602       13.53002       -14.98800       -0.16544
   346.15880       310.20145       13.48083       -15.01470       -0.16544
   350.28140       310.20702       13.47746       -15.04043       -0.16544
   354.76090       310.20733       13.51185       -15.06497       -0.16544
   359.80630       310.20515       13.53731       -15.08853       -0.16544
   365.23710       310.20646       13.54225       -15.11137       -0.16544
   370.69850       310.20917       13.55522       -15.13387       -0.16544
   376.10580       310.20946       13.56831       -15.15541       -0.16544
   381.30600       310.20843       13.56224       -15.17562       -0.16544
   386.36560       310.20896       13.54413       -15.19460       -0.16544
   391.67140       310.20957       13.53573       -15.21275       -0.15058
   397.44610       310.21145       13.51530       -15.23059       -0.13658
   403.46890       310.21492       13.48960       -15.24809       -0.12421
   409.17060       310.21739       13.49346       -15.26477       -0.11419
   414.20320       310.21712       13.51500       -15.28003       -0.10657
   418.74890       310.21612       13.53050       -15.29407       -0.10074
   423.20010       310.21863       13.53617       -15.30770       -0.09592
   427.99390       310.22498       13.53841       -15.32163       -0.09138
   433.26750       310.22950       13.54020       -15.33555       -0.08691
   438.79720       310.22906       13.53534       -15.34888       -0.08691
   444.41940       310.22593       13.52257       -15.36109       -0.08691
   449.89520       310.22288       13.50959       -15.37270       -0.08691
   455.17850       310.22116       13.49106       -15.38420       -0.08691
   460.50000       310.22048       13.47764       -15.39551       -0.08691
   466.01790       310.22099       13.46813       -15.40632       -0.08691
   471.43290       310.22150       13.45833       -15.41583       -0.08691
   476.75300       310.22161       13.45061       -15.42395       -0.08691
   481.77180       310.22223       13.44628       -15.43107       -0.08691
   486.73500       310.22338       13.45009       -15.43809       -0.08691
   491.39090       310.22312       13.46175       -15.44541       -0.08691
   495.91950       310.22467       13.47810       -15.45283       -0.08691
   500.43860       310.22918       13.52004       -15.45283       -0.08691
   505.51450       310.23149       13.57143       -15.45283       -0.08691
   511.04700       310.23186       13.59029       -15.45283       -0.08691
   516.71760       310.23240       13.57273       -15.45283       -0.08691
   522.25770       310.23314       13.54672       -15.45283       -0.08691
   528.04960       310.23418       13.52901       -15.45283       -0.08691
   533.77000       310.23599       13.51345       -15.45283       -0.08691
   539.35690       310.23784       13.51600       -15.45283       -0.08691
   544.99970       310.23690       13.53873       -15.45283       -0.08691
   550.93290       310.23395       13.54703       -15.45283       -0.08691
   556.76390       310.23148       13.53998       -15.45283       -0.08691
   562.17100       310.23104       13.52606       -15.45283       -0.08691
   567.12140       310.23202       13.50724       -15.45283       -0.08691
   571.88130       310.23437       13.51295       -15.45283       -0.09330
   576.86390       310.23838       13.53618       -15.45283       -0.11682
   582.24220       310.24167       13.53584       -15.45283       -0.14367
   588.02750       310.24335       13.52247       -15.45283       -0.17338
   593.75450       310.24420       13.51244       -15.45283       -0.20570
   599.10110       310.24282       13.50994       -15.45283       -0.24068
   604.25030       310.24255       13.50099       -15.45283       -0.27820
   609.78210       310.24470       13.50039       -15.45283       -0.31787
   615.51470       310.24703       13.51784       -15.45283       -0.35919
   621.19300       310.25083       13.51923       -15.45283       -0.40183
   627.08080       310.25656       13.49910       -15.45283       -0.44573
   633.27490       310.26179       13.47966       -15.45283       -0.49083
   639.51070       310.26251       13.47131       -15.44888       -0.53663
   645.55150       310.26010       13.47227       -15.43852       -0.58243
   651.21060       310.25845       13.48031       -15.42594       -0.62761
   656.48160       310.25846       13.47423       -15.41096       -0.67194
   661.65960       310.25847       13.42985       -15.39349       -0.71538
   666.95390       310.26902       13.33193       -15.37372       -0.75806
   672.49650       310.29942       13.20570       -15.35157       -0.79992
   677.83890       310.32743       13.15916       -15.32685       -0.84086
   682.95130       310.33736       13.18587       -15.29936       -0.88090
   688.38010       310.33712       13.22128       -15.26910       -0.92007
   694.35030       310.33689       13.23336       -15.23608       -0.95844
   700.28810       310.33836       13.22949       -15.20071       -0.99596
   706.30140       310.34321       13.21076       -15.16330       -1.03237
   712.50660       310.35262       13.18170       -15.12417       -1.06748
   718.59480       310.36182       13.16030       -15.08305       -1.10128
   724.36670       310.36720       13.13970       -15.04010       -1.13412
   729.83120       310.37354       13.11053       -14.99580       -1.16642
   735.20620       310.38762       13.07662       -14.95064       -1.19854
   740.36000       310.40432       13.05303       -14.90548       -1.23067
   745.82140       310.41732       13.04069       -14.86095       -1.26272
   751.92910       310.42668       13.03140       -14.81725       -1.29465
   758.52170       310.43376       13.00865       -14.77478       -1.32641
   765.05640       310.43894       12.98382       -14.73397       -1.35783
   771.26870       310.44460       12.96360       -14.69525       -1.38846
   776.97080       310.45578       12.93588       -14.65920       -1.41777
   782.35360       310.47014       12.91959       -14.62615       -1.44547
   787.80690       310.47977       12.93044       -14.59640       -1.47163
   793.79150       310.48511       12.93844       -14.57024       -1.49656
   799.84910       310.49046       12.92381       -14.54786       -1.52049
   805.63190       310.49747       12.89648       -14.52896       -1.54336
   811.40080       310.50724       12.86852       -14.51326       -1.56504
   817.51590       310.52177       12.85359       -14.50048       -1.58547
   823.73720       310.54211       12.84754       -14.49011       -1.60474
   830.08770       310.55948       12.83510       -14.48186       -1.62281
   836.19310       310.56948       12.82249       -14.47492       -1.63972
   841.67490       310.57692       12.81552       -14.46840       -1.65548
   846.59380       310.58818       12.79648       -14.46154       -1.67047
   851.55430       310.60249       12.77510       -14.45370       -1.68516
   857.04200       310.61709       12.75834       -14.44450       -1.70003
   862.71190       310.63843       12.74246       -14.43331       -1.71545
   868.61680       310.65531       12.73781       -14.41951       -1.73155
   874.80540       310.65835       12.73112       -14.40195       -1.74851
   881.09170       310.65651       12.71933       -14.37958       -1.76669
   886.94250       310.66196       12.69691       -14.35161       -1.78672
   892.25970       310.67537       12.66369       -14.31744       -1.80922
   897.07890       310.69085       12.63016       -14.27712       -1.83451
   901.45530       310.70508       12.62025       -14.23044       -1.86243
   905.40770       310.71280       12.63898       -14.17732       -1.89269
   909.34820       310.71590       12.64943       -14.11755       -1.92510
   913.77900       310.72051       12.63892       -14.05118       -1.95981
   918.74140       310.72413       12.66090       -13.97886       -1.99713
   923.98080       310.72621       12.69245       -13.90083       -2.03711
   929.21830       310.72983       12.70202       -13.81751       -2.07944
   934.24250       310.73468       12.70610       -13.72935       -2.12353
   939.20240       310.73899       12.71448       -13.63671       -2.16882
   944.39350       310.74166       12.70494       -13.54042       -2.21502
   950.06520       310.74105       12.71781       -13.44130       -2.26199
   956.13280       310.73957       12.73899       -13.34007       -2.30946
   962.43380       310.74011       12.73329       -13.23751       -2.35696
   968.53450       310.74460       12.69722       -13.13410       -2.40404
   974.35320       310.75649       12.66928       -13.03079       -2.45051
   979.85230       310.77368       12.67756       -12.92828       -2.49643
   985.38580       310.79232       12.68305       -12.82717       -2.54187
   991.47830       310.80286       12.67678       -12.72781       -2.58670
   997.73300       310.79716       12.67587       -12.63003       -2.63071
   1003.60150       310.78635       12.65867       -12.53388       -2.67379
   1009.57900       310.77983       12.65238       -12.43975       -2.71601
   1015.95790       310.77698       12.67013       -12.34799       -2.75732
   1022.59660       310.77688       12.67409       -12.25915       -2.79757
   1029.20070       310.77571       12.65743       -12.17336       -2.83670
   1035.71770       310.76983       12.64009       -12.09020       -2.87487
   1041.63250       310.76962       12.61339       -12.00946       -2.91260
   1047.10750       310.77761       12.59872       -11.93078       -2.95051
   1052.32650       310.78102       12.61527       -11.85377       -2.98897
   1056.91800       310.77915       12.65821       -11.77857       -3.02817
   1061.03260       310.78464       12.69076       -11.70486       -3.06816
   1065.73690       310.80178       12.70986       -11.63260       -3.10898
   1071.55860       310.82793       12.70140       -11.56138       -3.15067
   1077.92780       310.85161       12.65688       -11.49103       -3.19336
   1084.50120       310.87063       12.60524       -11.42151       -3.23715
   1091.19590       310.89695       12.53049       -11.35249       -3.28205
   1098.14150       310.92835       12.44362       -11.28414       -3.32812
   1105.26910       310.96132       12.35257       -11.21630       -3.37545
   1112.44390       310.99334       12.25824       -11.14868       -3.42425
   1119.46830       311.02622       12.15296       -11.08148       -3.47479
   1126.29680       309.99208       12.03326       -11.01455       -3.52710
   1133.17580       310.04306       11.96616       -10.94797       -3.58116
   1140.13170       310.07409       11.95933       -10.88134       -3.63679
   1147.07190       310.08623       11.94312       -10.81416       -3.69377
   1153.43650       310.10830       11.86960       -10.74605       -3.75191
   1159.06730       310.15769       11.76005       -10.67680       -3.81108
   1164.83720       310.20613       11.67679       -10.60624       -3.87109
   1171.27270       310.24911       11.55220       -10.53415       -3.93181
   1178.23850       310.32015       11.30174       -10.46006       -3.99331
   1186.06780       310.40757       11.02368       -10.38306       -4.05585
   1194.23140       310.49360       10.70868       -10.30237       -4.11988
   1202.11620       310.63452       10.38021       -10.21732       -4.18555
   1209.68330       310.78139       10.23907       -10.12737       -4.25260
   1216.94380       310.81861       10.23932       -10.03194       -4.32035
   1223.74610       310.83683       10.25370       -9.93030       -4.38805
   1230.50340       310.84076       10.25193       -9.82202       -4.45540
   1237.27980       310.84561       10.16123       -9.70636       -4.48045
   1244.06010       310.92352       9.96500       -9.58287       -4.48045
   1251.56090       311.00838       9.79548       -9.45131       -4.48045
   1259.59350       311.08912       9.72198       -9.31122       -4.48045
   1267.83010       311.12634       9.72357       -9.16253       -4.48045
   1276.18280       311.12413       9.75581       -9.00520       -4.48045
   1284.41810       311.10093       9.76742       -8.83929       -4.48045
   1292.18140       311.09198       9.74220       -8.66519       -4.48045
   1299.40480       311.10160       9.70858       -8.48326       -4.48045
   1306.45810       311.10916       9.68229       -8.29407       -4.48045
   1313.58690       311.12637       9.65094       -8.09826       -4.48045
   1321.16820       311.14997       9.58096       -7.89658       -4.48045
   1328.96670       311.17339       9.45894       -7.68992       -4.48045
   1336.86320       311.23628       9.30307       -7.47948       -4.48045
   1344.52270       311.30022       9.15292       -7.26644       -4.48045
   1352.14740       311.38659       8.97107       -7.05204       -4.48045
   1359.81780       311.50659       8.71788       -6.83743       -4.48045
   1366.93250       311.64034       8.52210       -6.62366       -4.48045
   1373.59100       311.74999       8.41104       -6.41231       -4.48045
   1380.63000       311.82299       8.33793       -6.20457       -4.48045
   1388.18420       311.86858       8.28733       -6.00187       -4.48045
   1395.56730       311.90635       8.26423       -5.80509       -4.48045
   1403.00050       311.95277       8.23999       -5.61495       -4.48045
   1410.63030       311.99113       8.20176       -5.43214       -4.48045
   1418.28110       312.01172       8.16446       -5.25711       -4.48045
   1426.10370       312.00703       8.20035       -5.09034       -4.48045
   1434.25860       311.98765       8.23958       -4.93236       -4.37728
   1441.70900       311.99689       8.15813       -4.78368       -4.27133
   1448.29750       312.03260       8.07168       -4.64434       -4.16356
   1454.48400       312.04540       8.11141       -4.51397       -4.05505
   1460.23450       312.02962       8.18254       -4.39196       -3.94711
   1465.67180       312.01711       8.20432       -4.27740       -3.84105
   1471.43800       312.01564       8.19124       -4.16961       -3.73838
   1477.61270       312.03033       8.16399       -4.06822       -3.64069
   1483.94480       312.04542       8.18752       -3.97263       -3.54897
   1490.29100       312.03833       8.20884       -3.88227       -3.46398
   1497.06030       312.03899       8.13962       -3.79600       -3.38598
   1504.25650       312.07701       7.98584       -3.71222       -3.31526
   1511.94310       312.14123       7.82375       -3.62937       -3.25234
   1520.20390       312.21581       7.65850       -3.54592       -3.19739
   1528.32130       312.28704       7.51508       -3.46086       -3.15037
   1535.53220       312.36627       7.34685       -3.37372       -3.11092
   1541.96570       312.43675       7.21553       -3.28388       -3.07832
   1547.96670       312.48765       7.19184       -3.19075       -3.05203
   1553.72440       312.52295       7.22281       -3.09338       -3.03141
   1559.55170       312.53747       7.24344       -2.99100       -3.01582
   1565.70290       312.55305       7.20463       -2.88300       -3.00439
   1572.01410       312.59077       7.15139       -2.76917       -2.99621
   1578.30510       312.63284       7.09693       -2.64925       -2.99010
   1585.04770       312.69255       6.99278       -2.52336       -2.98520
   1591.89340       312.77677       6.87466       -2.39165       -2.98084
   1598.85340       312.83756       6.82196       -2.25445       -2.97661
   1606.20920       312.86212       6.81897       -2.11213       -2.97203
   1613.58470       312.87754       6.79864       -1.96521       -2.97203
   1620.33000       312.89574       6.76579       -1.81389       -2.97203
   1627.26720       312.91688       6.73481       -1.65860       -2.97203
   1634.88090       312.94483       6.68412       -1.49989       -2.97203
   1642.95260       312.96234       6.63571       -1.33864       -2.97203
   1650.76190       312.96357       6.60531       -1.17581       -2.97203
   1657.53970       312.98984       6.49656       -1.01233       -2.97203
   1663.22740       313.05358       6.36681       -0.84877       -2.97203
   1669.08190       313.13214       6.28075       -0.68563       -2.97203
   1675.84770       313.21355       6.19238       -0.52342       -2.97203
   1682.93940       313.28651       6.08793       -0.36275       -2.97203
   1689.81750       313.34046       6.01013       -0.20408       -2.97203
   1697.02590       313.38665       5.94285       -0.04757       -2.97203
   1704.04460       313.43390       5.86001       0.10682       -2.97203
   1710.56540       313.48147       5.78060       0.25911       -2.97203
   1716.94420       313.52280       5.72756       0.40917       -2.97203
   1723.33700       313.55407       5.69514       0.55677       -2.97203
   1729.61920       313.57367       5.68282       0.70171       -2.97203
   1736.28170       313.58711       5.67886       0.84408       -2.97203
   1743.42980       313.59957       5.65707       0.98416       -2.97203
   1750.86220       313.61675       5.61246       1.12214       -2.97203
   1758.01950       313.63411       5.56962       1.25799       -2.97203
   1764.67100       313.64585       5.53633       1.39158       -2.97203
   1770.12170       313.66522       5.49071       1.52284       -2.97203
   1774.69330       313.70647       5.41117       1.65207       -2.97203
   1779.04870       313.74300       5.40226       1.77948       -2.97281
   1783.83080       313.75654       5.42854       1.90536       -2.99487
   1788.83240       313.76342       5.43433       2.02964       -3.01631
   1794.20520       313.79778       5.34830       2.15217       -3.03656
   1800.09780       313.87334       5.17886       2.27253       -3.05506
   1806.24010       313.95905       4.97323       2.39041       -3.07167
   1812.10650       314.08384       4.70319       2.50523       -3.08617
   1818.22340       314.23765       4.54301       2.61684       -3.09878
   1824.58870       314.34210       4.53660       2.72494       -3.10947
   1830.47100       314.38930       4.55787       2.82905       -3.11805
   1836.11280       314.41327       4.57250       2.92891       -3.12472
   1841.98650       314.42579       4.58708       3.02415       -3.12960
   1848.14300       314.43057       4.59630       3.11476       -3.13307
   1854.02720       314.43346       4.60611       3.20096       -3.13551
   1859.74590       314.43718       4.61227       3.28247       -3.13697
   1866.28950       314.44016       4.61660       3.35884       -3.13769
   1873.81020       314.44120       4.62708       3.42945       -3.13806
   1881.54450       314.43985       4.63860       3.49406       -3.13856
   1888.47240       314.44316       4.66012       3.55297       -3.13963
   1894.02920       314.45708       4.69485       3.60671       -3.14145
   1898.61580       314.47321       4.71650       3.65589       -3.14145
   1903.05320       314.47851       4.70922       3.70073       -3.14145
   1908.02460       314.47740       4.73238       3.74156       -3.14145
   1913.45700       314.47795       4.79236       3.77858       -3.14145
   1918.94130       314.48071       4.82496       3.81197       -3.14145
   1924.39350       314.48286       4.83014       3.84213       -3.14145
   1929.54680       314.48655       4.83439       3.86960       -3.14145
   1934.31830       314.49593       4.85356       3.89474       -3.14145
   1939.48910       314.50522       4.88791       3.91824       -3.14145
   1945.42460       314.51026       4.92562       3.94049       -3.14145
   1952.17830       314.51301       4.94027       3.96142       -3.14145
   1959.59360       314.51271       4.94043       3.98087       -3.14145
   1967.09940       314.50709       4.93132       3.99894       -3.14145
   1974.23670       314.50137       4.91433       4.01575       -3.14145
   1981.17810       314.50135       4.91477       4.03205       -3.14145
   1987.92850       314.50760       4.93889       4.04800       -3.14145
   1994.54730       314.52069       5.00304       4.06383       -3.14145
   2001.34340       314.54190       5.11906       4.07919       -3.14145
   2008.00580       314.55889       5.20063       4.09400       -3.14145
   2014.35290       314.56461       5.21423       4.10808       -3.14145
   2020.60460       314.56512       5.20288       4.12166       -3.14145
   2026.78400       314.56373       5.18951       4.13467       -3.14145
   2033.02380       314.56043       5.18908       4.14712       -3.14145
   2039.46410       314.55785       5.18924       4.15908       -3.14145
   2045.80760       314.55916       5.18968       4.17074       -3.14145
   2052.11910       314.56492       5.19937       4.18232       -3.13707
   2058.50210       314.57400       5.23236       4.19420       -3.09160
   2065.13190       314.58214       5.26499       4.20653       -3.04113
   2071.84460       314.58634       5.27475       4.21936       -2.98590
   2078.22690       314.59208       5.27271       4.23306       -2.92617
   2084.07690       314.60221       5.26990       4.24800       -2.86207
   2089.54390       314.61405       5.27745       4.26501       -2.79400
   2095.50870       314.62085       5.28664       4.28463       -2.72228
   2101.92230       314.62632       5.30002       4.30757       -2.64745
   2108.82340       314.63167       5.31645       4.33415       -2.56995
   2116.20480       314.63465       5.32274       4.36486       -2.49032
   2123.97510       314.63790       5.31520       4.40018       -2.40909
   2131.84390       314.64087       5.30118       4.44073       -2.32682
   2140.12500       314.64856       5.28731       4.48701       -2.24389
   2148.88960       314.66422       5.27189       4.53919       -2.16044
   2157.93570       314.67021       5.25676       4.59745       -2.07665
   2166.55900       314.66372       5.23867       4.66186       -1.99272
   2174.21830       314.66553       5.21689       4.73262       -1.90917
   2181.10970       314.68489       5.20069       4.80984       -1.82659
   2188.09110       314.71389       5.19724       4.89359       -1.74558
   2195.44380       314.73927       5.20185       4.98363       -1.66657
   2202.96260       314.75025       5.20362       5.07981       -1.58988
   2209.87710       314.75884       5.18547       5.18210       -1.51566
   2216.12290       314.78456       5.15338       5.29040       -1.44389
   2221.56040       314.82297       5.12729       5.40445       -1.37452
   2226.96830       314.85912       5.12309       5.52376       -1.30751
   2232.56600       314.87879       5.13885       5.64738       -1.24275
   2238.51800       314.87896       5.16394       5.77463       -1.18021
   2244.81530       314.86305       5.18937       5.90507       -1.11977
   2251.80920       314.85675       5.18155       6.03825       -1.06127
   2259.58780       314.89368       5.12071       6.17359       -1.00467
   2267.62010       314.94475       5.06526       6.31060       -0.94997
   2275.50960       314.97071       5.04310       6.44890       -0.89713
   2283.05320       314.97337       5.03858       6.58791       -0.84595
   2290.29160       314.96714       5.03734       6.72654       -0.79626
   2297.08930       314.96652       5.02556       6.86416       -0.74803
   2303.57530       314.97823       5.00218       7.00005       -0.70140
   2310.01340       315.00160       4.97921       7.13367       -0.65636
   2316.98850       315.02159       4.97723       7.26430       -0.61273
   2324.26220       315.02674       4.98893       7.39122       -0.57040
   2331.36410       315.02781       4.98384       7.51396       -0.52954
   2338.13860       315.03977       4.96320       7.63206       -0.49048
   2344.80170       315.05410       4.95316       7.74564       -0.45349
   2351.20500       315.05694       4.95171       7.85455       -0.41861
   2357.54090       315.06070       4.94394       7.95836       -0.38578
   2364.09150       315.08556       4.92439       8.05628       -0.38578
   2370.90080       315.11756       4.91292       8.14795       -0.38578
   2377.42530       315.14488       4.88243       8.23321       -0.38578
   2383.88510       315.18613       4.82983       8.31196       -0.38578
   2390.37850       315.23422       4.79386       8.38444       -0.38578
   2396.27860       315.26425       4.78174       8.45068       -0.38578
   2401.57760       315.27782       4.78325       8.51059       -0.38578
   2407.11530       315.28267       4.79154       8.56447       -0.38578
   2413.25950       315.28301       4.80102       8.61275       -0.38578
   2419.55990       315.28980       4.79564       8.65583       -0.38578
   2426.10950       315.29948       4.78774       8.69414       -0.38578
   2432.98430       315.30347       4.78338       8.72808       -0.38367
   2439.69880       315.30592       4.77785       8.75826       -0.37717
   2445.86550       315.30801       4.77111       8.78568       -0.37011
   2451.76700       315.30458       4.76812       8.81082       -0.35930
   2457.38580       315.30093       4.75427       8.83430       -0.35526
   2462.77640       315.30283       4.74266       8.85651       -0.35506
   2468.10940       315.30530       4.75172       8.87758       -0.33931
   2473.46600       315.30631       4.76526       8.89819       -0.33910